examples/feeders/CER3_2_34/CargasPnt_CER3_2_34.dss
New Load.NTUC_25568_MOD2 bus=RM_25568.1 phases=1 conn=Wye kv=0.22 kw=-0.4275 pf=0.92 Daily=cc30_Util Model=2 status=variable vminpu=0.92 vmaxpu=1.1 
New Load.NTUC_25568_MOD3 bus=RM_25568.1 phases=1 conn=Wye kv=0.22 kw=-0.4275 pf=0.92 Daily=cc30_Util Model=3 status=variable vminpu=0.92 vmaxpu=1.1 

New Load.NTUC_73454_MOD2 bus=RM_73454.1 phases=1 conn=Wye kv=0.22 kw=-0.3805 pf=0.92 Daily=cc30_Util Model=2 status=variable vminpu=0.92 vmaxpu=1.1 
New Load.NTUC_73454_MOD3 bus=RM_73454.1 phases=1 conn=Wye kv=0.22 kw=-0.3805 pf=0.92 Daily=cc30_Util Model=3 status=variable vminpu=0.92 vmaxpu=1.1 

New Load.NTUC_57580_MOD2 bus=RM_57580.2 phases=1 conn=Wye kv=0.219 kw=-0.3175 pf=0.92 Daily=cc18_Util Model=2 status=variable vminpu=0.92 vmaxpu=1.1 
New Load.NTUC_57580_MOD3 bus=RM_57580.2 phases=1 conn=Wye kv=0.219 kw=-0.3175 pf=0.92 Daily=cc18_Util Model=3 status=variable vminpu=0.92 vmaxpu=1.1 

New Load.NTUC_28976_MOD2 bus=RM_28976.1 phases=1 conn=Wye kv=0.219 kw=-0.2785 pf=0.92 Daily=cc17_Util Model=2 status=variable vminpu=0.92 vmaxpu=1.1 
New Load.NTUC_28976_MOD3 bus=RM_28976.1 phases=1 conn=Wye kv=0.219 kw=-0.2785 pf=0.92 Daily=cc17_Util Model=3 status=variable vminpu=0.92 vmaxpu=1.1 

New Load.NTUC_29152_MOD2 bus=RM_29152.2 phases=1 conn=Wye kv=0.219 kw=-0.5705 pf=0.92 Daily=cc18_Util Model=2 status=variable vminpu=0.92 vmaxpu=1.1 
New Load.NTUC_29152_MOD3 bus=RM_29152.2 phases=1 conn=Wye kv=0.219 kw=-0.5705 pf=0.92 Daily=cc18_Util Model=3 status=variable vminpu=0.92 vmaxpu=1.1 

New Load.NTUC_46046_MOD2 bus=RM_46046.1 phases=1 conn=Wye kv=0.219 kw=-0.1395 pf=0.92 Daily=cc16_Util Model=2 status=variable vminpu=0.92 vmaxpu=1.1 
New Load.NTUC_46046_MOD3 bus=RM_46046.1 phases=1 conn=Wye kv=0.219 kw=-0.1395 pf=0.92 Daily=cc16_Util Model=3 status=variable vminpu=0.92 vmaxpu=1.1 

New Load.NTUC_45319_MOD2 bus=RM_45319.1 phases=1 conn=Wye kv=0.219 kw=-0.345 pf=0.92 Daily=cc17_Util Model=2 status=variable vminpu=0.92 vmaxpu=1.1 
New Load.NTUC_45319_MOD3 bus=RM_45319.1 phases=1 conn=Wye kv=0.219 kw=-0.345 pf=0.92 Daily=cc17_Util Model=3 status=variable vminpu=0.92 vmaxpu=1.1 

New Load.NTUC_63681_MOD2 bus=RM_63681.1.2 phases=1 conn=Wye kv=0.219 kw=-0.002 pf=0.92 Daily=cc16_Util Model=2 status=variable vminpu=0.92 vmaxpu=1.1 
New Load.NTUC_63681_MOD3 bus=RM_63681.1.2 phases=1 conn=Wye kv=0.219 kw=-0.002 pf=0.92 Daily=cc16_Util Model=3 status=variable vminpu=0.92 vmaxpu=1.1 

New Load.NTUC_56750_MOD2 bus=RM_56750.1.2.3 phases=1 conn=Delta kv=0.38 kw=-0.5945 pf=0.92 Daily=cc18_Util Model=2 status=variable vminpu=0.92 vmaxpu=1.1 
New Load.NTUC_56750_MOD3 bus=RM_56750.1.2.3 phases=1 conn=Delta kv=0.38 kw=-0.5945 pf=0.92 Daily=cc18_Util Model=3 status=variable vminpu=0.92 vmaxpu=1.1 

New Load.NTUC_43556_MOD2 bus=RM_43556.1 phases=1 conn=Wye kv=0.219 kw=-0.372 pf=0.92 Daily=cc18_Util Model=2 status=variable vminpu=0.92 vmaxpu=1.1 
New Load.NTUC_43556_MOD3 bus=RM_43556.1 phases=1 conn=Wye kv=0.219 kw=-0.372 pf=0.92 Daily=cc18_Util Model=3 status=variable vminpu=0.92 vmaxpu=1.1 

New Load.NTUC_58348_MOD2 bus=BT_116213_1.1 phases=1 conn=Wye kv=0.219 kw=-0.263 pf=0.92 Daily=cc17_Util Model=2 status=variable vminpu=0.92 vmaxpu=1.1 
New Load.NTUC_58348_MOD3 bus=BT_116213_1.1 phases=1 conn=Wye kv=0.219 kw=-0.263 pf=0.92 Daily=cc17_Util Model=3 status=variable vminpu=0.92 vmaxpu=1.1 

New Load.NTUC_48510_MOD2 bus=RM_48510.2 phases=1 conn=Wye kv=0.219 kw=-0.415 pf=0.92 Daily=cc18_Util Model=2 status=variable vminpu=0.92 vmaxpu=1.1 
New Load.NTUC_48510_MOD3 bus=RM_48510.2 phases=1 conn=Wye kv=0.219 kw=-0.415 pf=0.92 Daily=cc18_Util Model=3 status=variable vminpu=0.92 vmaxpu=1.1 

New Load.NTUC_57655_MOD2 bus=RM_57655.1 phases=1 conn=Wye kv=0.219 kw=-0.2155 pf=0.92 Daily=cc29_Util Model=2 status=variable vminpu=0.92 vmaxpu=1.1 
New Load.NTUC_57655_MOD3 bus=RM_57655.1 phases=1 conn=Wye kv=0.219 kw=-0.2155 pf=0.92 Daily=cc29_Util Model=3 status=variable vminpu=0.92 vmaxpu=1.1 

New Load.NTUC_49740_MOD2 bus=RM_49740.2 phases=1 conn=Wye kv=0.219 kw=-0.0985 pf=0.92 Daily=cc16_Util Model=2 status=variable vminpu=0.92 vmaxpu=1.1 
New Load.NTUC_49740_MOD3 bus=RM_49740.2 phases=1 conn=Wye kv=0.219 kw=-0.0985 pf=0.92 Daily=cc16_Util Model=3 status=variable vminpu=0.92 vmaxpu=1.1 

New Load.NTUC_63673_MOD2 bus=RM_63673.1.2 phases=1 conn=Wye kv=0.219 kw=-0.316 pf=0.92 Daily=cc17_Util Model=2 status=variable vminpu=0.92 vmaxpu=1.1 
New Load.NTUC_63673_MOD3 bus=RM_63673.1.2 phases=1 conn=Wye kv=0.219 kw=-0.316 pf=0.92 Daily=cc17_Util Model=3 status=variable vminpu=0.92 vmaxpu=1.1 

New Load.NTUC_63672_MOD2 bus=RM_63672.3 phases=1 conn=Wye kv=0.219 kw=-0.727 pf=0.92 Daily=cc18_Util Model=2 status=variable vminpu=0.92 vmaxpu=1.1 
New Load.NTUC_63672_MOD3 bus=RM_63672.3 phases=1 conn=Wye kv=0.219 kw=-0.727 pf=0.92 Daily=cc18_Util Model=3 status=variable vminpu=0.92 vmaxpu=1.1 

New Load.NTUC_33259_MOD2 bus=RM_33259.2 phases=1 conn=Wye kv=0.219 kw=-0.272 pf=0.92 Daily=cc17_Util Model=2 status=variable vminpu=0.92 vmaxpu=1.1 
New Load.NTUC_33259_MOD3 bus=RM_33259.2 phases=1 conn=Wye kv=0.219 kw=-0.272 pf=0.92 Daily=cc17_Util Model=3 status=variable vminpu=0.92 vmaxpu=1.1 

New Load.NTUC_30098_MOD2 bus=RM_30098.2 phases=1 conn=Wye kv=0.219 kw=-0.4665 pf=0.92 Daily=cc18_Util Model=2 status=variable vminpu=0.92 vmaxpu=1.1 
New Load.NTUC_30098_MOD3 bus=RM_30098.2 phases=1 conn=Wye kv=0.219 kw=-0.4665 pf=0.92 Daily=cc18_Util Model=3 status=variable vminpu=0.92 vmaxpu=1.1 

New Load.NTUC_28782_MOD2 bus=BT_116209_1.1 phases=1 conn=Wye kv=0.219 kw=-0.2915 pf=0.92 Daily=cc17_Util Model=2 status=variable vminpu=0.92 vmaxpu=1.1 
New Load.NTUC_28782_MOD3 bus=BT_116209_1.1 phases=1 conn=Wye kv=0.219 kw=-0.2915 pf=0.92 Daily=cc17_Util Model=3 status=variable vminpu=0.92 vmaxpu=1.1 

New Load.NTUC_75356_MOD2 bus=BT_116209_1.2 phases=1 conn=Wye kv=0.219 kw=-0.8145 pf=0.92 Daily=cc25_Util Model=2 status=variable vminpu=0.92 vmaxpu=1.1 
New Load.NTUC_75356_MOD3 bus=BT_116209_1.2 phases=1 conn=Wye kv=0.219 kw=-0.8145 pf=0.92 Daily=cc25_Util Model=3 status=variable vminpu=0.92 vmaxpu=1.1 

New Load.NTUC_77536_MOD2 bus=BT_116209_1.1 phases=1 conn=Wye kv=0.219 kw=-0.1125 pf=0.92 Daily=cc16_Util Model=2 status=variable vminpu=0.92 vmaxpu=1.1 
New Load.NTUC_77536_MOD3 bus=BT_116209_1.1 phases=1 conn=Wye kv=0.219 kw=-0.1125 pf=0.92 Daily=cc16_Util Model=3 status=variable vminpu=0.92 vmaxpu=1.1 

New Load.NTUC_48883_MOD2 bus=RM_48883.1 phases=1 conn=Wye kv=0.22 kw=-0.081 pf=0.92 Daily=cc29_Util Model=2 status=variable vminpu=0.92 vmaxpu=1.1 
New Load.NTUC_48883_MOD3 bus=RM_48883.1 phases=1 conn=Wye kv=0.22 kw=-0.081 pf=0.92 Daily=cc29_Util Model=3 status=variable vminpu=0.92 vmaxpu=1.1 

New Load.NTUC_19884_MOD2 bus=RM_19884.1.2 phases=1 conn=Delta kv=0.44 kw=-0.3715 pf=0.92 Daily=cc30_Util Model=2 status=variable vminpu=0.92 vmaxpu=1.1 
New Load.NTUC_19884_MOD3 bus=RM_19884.1.2 phases=1 conn=Delta kv=0.44 kw=-0.3715 pf=0.92 Daily=cc30_Util Model=3 status=variable vminpu=0.92 vmaxpu=1.1 

New Load.NTUC_19880_MOD2 bus=RM_19880.1.2 phases=1 conn=Delta kv=0.44 kw=-0.514 pf=0.92 Daily=cc30_Util Model=2 status=variable vminpu=0.92 vmaxpu=1.1 
New Load.NTUC_19880_MOD3 bus=RM_19880.1.2 phases=1 conn=Delta kv=0.44 kw=-0.514 pf=0.92 Daily=cc30_Util Model=3 status=variable vminpu=0.92 vmaxpu=1.1 

New Load.NTUC_49512_MOD2 bus=RM_49512.1 phases=1 conn=Wye kv=0.219 kw=-0.2015 pf=0.92 Daily=cc17_Util Model=2 status=variable vminpu=0.92 vmaxpu=1.1 
New Load.NTUC_49512_MOD3 bus=RM_49512.1 phases=1 conn=Wye kv=0.219 kw=-0.2015 pf=0.92 Daily=cc17_Util Model=3 status=variable vminpu=0.92 vmaxpu=1.1 

New Load.NTUC_57203_MOD2 bus=RM_57203.3 phases=1 conn=Wye kv=0.219 kw=-0.3565 pf=0.92 Daily=cc18_Util Model=2 status=variable vminpu=0.92 vmaxpu=1.1 
New Load.NTUC_57203_MOD3 bus=RM_57203.3 phases=1 conn=Wye kv=0.219 kw=-0.3565 pf=0.92 Daily=cc18_Util Model=3 status=variable vminpu=0.92 vmaxpu=1.1 

New Load.NTUC_81005_MOD2 bus=RM_81005.1 phases=1 conn=Wye kv=0.22 kw=-1.4705 pf=0.92 Daily=cc31_Util Model=2 status=variable vminpu=0.92 vmaxpu=1.1 
New Load.NTUC_81005_MOD3 bus=RM_81005.1 phases=1 conn=Wye kv=0.22 kw=-1.4705 pf=0.92 Daily=cc31_Util Model=3 status=variable vminpu=0.92 vmaxpu=1.1 

New Load.NTUC_62793_MOD2 bus=RM_62793.1 phases=1 conn=Wye kv=0.22 kw=-0.253 pf=0.92 Daily=cc29_Util Model=2 status=variable vminpu=0.92 vmaxpu=1.1 
New Load.NTUC_62793_MOD3 bus=RM_62793.1 phases=1 conn=Wye kv=0.22 kw=-0.253 pf=0.92 Daily=cc29_Util Model=3 status=variable vminpu=0.92 vmaxpu=1.1 

New Load.NTUC_8644_MOD2 bus=RM_8644.1.2 phases=1 conn=Delta kv=0.44 kw=-1.938 pf=0.92 Daily=cc32_Util Model=2 status=variable vminpu=0.92 vmaxpu=1.1 
New Load.NTUC_8644_MOD3 bus=RM_8644.1.2 phases=1 conn=Delta kv=0.44 kw=-1.938 pf=0.92 Daily=cc32_Util Model=3 status=variable vminpu=0.92 vmaxpu=1.1 

New Load.NTUC_8581_MOD2 bus=RM_8581.1.2 phases=1 conn=Delta kv=0.44 kw=-0.2895 pf=0.92 Daily=cc29_Util Model=2 status=variable vminpu=0.92 vmaxpu=1.1 
New Load.NTUC_8581_MOD3 bus=RM_8581.1.2 phases=1 conn=Delta kv=0.44 kw=-0.2895 pf=0.92 Daily=cc29_Util Model=3 status=variable vminpu=0.92 vmaxpu=1.1 

New Load.NTUC_22717_MOD2 bus=RM_22717.1.2 phases=1 conn=Delta kv=0.38 kw=-0.752 pf=0.92 Daily=cc30_Util Model=2 status=variable vminpu=0.92 vmaxpu=1.1 
New Load.NTUC_22717_MOD3 bus=RM_22717.1.2 phases=1 conn=Delta kv=0.38 kw=-0.752 pf=0.92 Daily=cc30_Util Model=3 status=variable vminpu=0.92 vmaxpu=1.1 

New Load.NTUC_44421_MOD2 bus=RM_44421.1.2.3 phases=3 conn=Delta kv=0.38 kw=-2.06 pf=0.92 Daily=cc32_Util Model=2 status=variable vminpu=0.92 vmaxpu=1.1 
New Load.NTUC_44421_MOD3 bus=RM_44421.1.2.3 phases=3 conn=Delta kv=0.38 kw=-2.06 pf=0.92 Daily=cc32_Util Model=3 status=variable vminpu=0.92 vmaxpu=1.1 

New Load.NTUC_18182_MOD2 bus=RM_18182.1.2 phases=1 conn=Delta kv=0.44 kw=-0.29 pf=0.92 Daily=cc17_Util Model=2 status=variable vminpu=0.92 vmaxpu=1.1 
New Load.NTUC_18182_MOD3 bus=RM_18182.1.2 phases=1 conn=Delta kv=0.44 kw=-0.29 pf=0.92 Daily=cc17_Util Model=3 status=variable vminpu=0.92 vmaxpu=1.1 

New Load.NTUC_54523_MOD2 bus=RM_54523.1 phases=1 conn=Wye kv=0.22 kw=-0.631 pf=0.92 Daily=cc30_Util Model=2 status=variable vminpu=0.92 vmaxpu=1.1 
New Load.NTUC_54523_MOD3 bus=RM_54523.1 phases=1 conn=Wye kv=0.22 kw=-0.631 pf=0.92 Daily=cc30_Util Model=3 status=variable vminpu=0.92 vmaxpu=1.1 

New Load.NTUC_18671_MOD2 bus=RM_18671.1.2 phases=1 conn=Delta kv=0.44 kw=-0.6005 pf=0.92 Daily=cc30_Util Model=2 status=variable vminpu=0.92 vmaxpu=1.1 
New Load.NTUC_18671_MOD3 bus=RM_18671.1.2 phases=1 conn=Delta kv=0.44 kw=-0.6005 pf=0.92 Daily=cc30_Util Model=3 status=variable vminpu=0.92 vmaxpu=1.1 

New Load.NTUC_35271_MOD2 bus=RM_35271.1.2 phases=1 conn=Delta kv=0.44 kw=-0.6585 pf=0.92 Daily=cc30_Util Model=2 status=variable vminpu=0.92 vmaxpu=1.1 
New Load.NTUC_35271_MOD3 bus=RM_35271.1.2 phases=1 conn=Delta kv=0.44 kw=-0.6585 pf=0.92 Daily=cc30_Util Model=3 status=variable vminpu=0.92 vmaxpu=1.1 

New Load.NTUC_18711_MOD2 bus=RM_18711.1.2 phases=1 conn=Delta kv=0.44 kw=-0.788 pf=0.92 Daily=cc30_Util Model=2 status=variable vminpu=0.92 vmaxpu=1.1 
New Load.NTUC_18711_MOD3 bus=RM_18711.1.2 phases=1 conn=Delta kv=0.44 kw=-0.788 pf=0.92 Daily=cc30_Util Model=3 status=variable vminpu=0.92 vmaxpu=1.1 

New Load.NTUC_57578_MOD2 bus=RM_57578.2 phases=1 conn=Wye kv=0.22 kw=-0.182 pf=0.92 Daily=cc17_Util Model=2 status=variable vminpu=0.92 vmaxpu=1.1 
New Load.NTUC_57578_MOD3 bus=RM_57578.2 phases=1 conn=Wye kv=0.22 kw=-0.182 pf=0.92 Daily=cc17_Util Model=3 status=variable vminpu=0.92 vmaxpu=1.1 

New Load.NTUC_83134_MOD2 bus=RM_83134.1.2 phases=1 conn=Delta kv=0.44 kw=-0.4275 pf=0.92 Daily=cc30_Util Model=2 status=variable vminpu=0.92 vmaxpu=1.1 
New Load.NTUC_83134_MOD3 bus=RM_83134.1.2 phases=1 conn=Delta kv=0.44 kw=-0.4275 pf=0.92 Daily=cc30_Util Model=3 status=variable vminpu=0.92 vmaxpu=1.1 

New Load.NTUC_80619_MOD2 bus=RM_80619.1 phases=1 conn=Wye kv=0.22 kw=-0.2565 pf=0.92 Daily=cc29_Util Model=2 status=variable vminpu=0.92 vmaxpu=1.1 
New Load.NTUC_80619_MOD3 bus=RM_80619.1 phases=1 conn=Wye kv=0.22 kw=-0.2565 pf=0.92 Daily=cc29_Util Model=3 status=variable vminpu=0.92 vmaxpu=1.1 

New Load.NTUC_67441_MOD2 bus=RM_67441.2 phases=1 conn=Wye kv=0.22 kw=-0.1485 pf=0.92 Daily=cc29_Util Model=2 status=variable vminpu=0.92 vmaxpu=1.1 
New Load.NTUC_67441_MOD3 bus=RM_67441.2 phases=1 conn=Wye kv=0.22 kw=-0.1485 pf=0.92 Daily=cc29_Util Model=3 status=variable vminpu=0.92 vmaxpu=1.1 

New Load.NTUC_73235_MOD2 bus=RM_73235.2 phases=1 conn=Wye kv=0.22 kw=-0.285 pf=0.92 Daily=cc17_Util Model=2 status=variable vminpu=0.92 vmaxpu=1.1 
New Load.NTUC_73235_MOD3 bus=RM_73235.2 phases=1 conn=Wye kv=0.22 kw=-0.285 pf=0.92 Daily=cc17_Util Model=3 status=variable vminpu=0.92 vmaxpu=1.1 

New Load.NTUC_59207_MOD2 bus=RM_59207.1.2 phases=1 conn=Delta kv=0.44 kw=-0.788 pf=0.92 Daily=cc30_Util Model=2 status=variable vminpu=0.92 vmaxpu=1.1 
New Load.NTUC_59207_MOD3 bus=RM_59207.1.2 phases=1 conn=Delta kv=0.44 kw=-0.788 pf=0.92 Daily=cc30_Util Model=3 status=variable vminpu=0.92 vmaxpu=1.1 

New Load.NTUC_8828_MOD2 bus=RM_8828.1.2 phases=1 conn=Delta kv=0.44 kw=-0.781 pf=0.92 Daily=cc30_Util Model=2 status=variable vminpu=0.92 vmaxpu=1.1 
New Load.NTUC_8828_MOD3 bus=RM_8828.1.2 phases=1 conn=Delta kv=0.44 kw=-0.781 pf=0.92 Daily=cc30_Util Model=3 status=variable vminpu=0.92 vmaxpu=1.1 

New Load.NTUC_80496_MOD2 bus=RM_80496.1 phases=1 conn=Wye kv=0.22 kw=-0.3245 pf=0.92 Daily=cc17_Util Model=2 status=variable vminpu=0.92 vmaxpu=1.1 
New Load.NTUC_80496_MOD3 bus=RM_80496.1 phases=1 conn=Wye kv=0.22 kw=-0.3245 pf=0.92 Daily=cc17_Util Model=3 status=variable vminpu=0.92 vmaxpu=1.1 

New Load.NTUC_18147_MOD2 bus=RM_18147.1.2.3 phases=3 conn=Delta kv=0.38 kw=-1.4695 pf=0.92 Daily=cc31_Util Model=2 status=variable vminpu=0.92 vmaxpu=1.1 
New Load.NTUC_18147_MOD3 bus=RM_18147.1.2.3 phases=3 conn=Delta kv=0.38 kw=-1.4695 pf=0.92 Daily=cc31_Util Model=3 status=variable vminpu=0.92 vmaxpu=1.1 

New Load.NTUC_18148_MOD2 bus=RM_18148.1.2.3 phases=3 conn=Delta kv=0.38 kw=-0.154 pf=0.92 Daily=cc31_Util Model=2 status=variable vminpu=0.92 vmaxpu=1.1 
New Load.NTUC_18148_MOD3 bus=RM_18148.1.2.3 phases=3 conn=Delta kv=0.38 kw=-0.154 pf=0.92 Daily=cc31_Util Model=3 status=variable vminpu=0.92 vmaxpu=1.1 

New Load.NTUC_77534_MOD2 bus=RM_77534.1.2.3 phases=3 conn=Delta kv=0.38 kw=-0.1805 pf=0.92 Daily=cc29_Util Model=2 status=variable vminpu=0.92 vmaxpu=1.1 
New Load.NTUC_77534_MOD3 bus=RM_77534.1.2.3 phases=3 conn=Delta kv=0.38 kw=-0.1805 pf=0.92 Daily=cc29_Util Model=3 status=variable vminpu=0.92 vmaxpu=1.1 

New Load.NTUC_26512_MOD2 bus=RM_26512.2 phases=1 conn=Wye kv=0.22 kw=-0.7015 pf=0.92 Daily=cc30_Util Model=2 status=variable vminpu=0.92 vmaxpu=1.1 
New Load.NTUC_26512_MOD3 bus=RM_26512.2 phases=1 conn=Wye kv=0.22 kw=-0.7015 pf=0.92 Daily=cc30_Util Model=3 status=variable vminpu=0.92 vmaxpu=1.1 

New Load.NTUC_41959_MOD2 bus=RM_41959.1.2 phases=1 conn=Delta kv=0.44 kw=-0.04 pf=0.92 Daily=cc29_Util Model=2 status=variable vminpu=0.92 vmaxpu=1.1 
New Load.NTUC_41959_MOD3 bus=RM_41959.1.2 phases=1 conn=Delta kv=0.44 kw=-0.04 pf=0.92 Daily=cc29_Util Model=3 status=variable vminpu=0.92 vmaxpu=1.1 

New Load.NTUC_70080_MOD2 bus=RM_70080.1.2 phases=1 conn=Delta kv=0.44 kw=-0.788 pf=0.92 Daily=cc31_Util Model=2 status=variable vminpu=0.92 vmaxpu=1.1 
New Load.NTUC_70080_MOD3 bus=RM_70080.1.2 phases=1 conn=Delta kv=0.44 kw=-0.788 pf=0.92 Daily=cc31_Util Model=3 status=variable vminpu=0.92 vmaxpu=1.1 

New Load.NTUC_18375_MOD2 bus=RM_18375.1.2 phases=1 conn=Delta kv=0.38 kw=-0.3835 pf=0.92 Daily=cc18_Util Model=2 status=variable vminpu=0.92 vmaxpu=1.1 
New Load.NTUC_18375_MOD3 bus=RM_18375.1.2 phases=1 conn=Delta kv=0.38 kw=-0.3835 pf=0.92 Daily=cc18_Util Model=3 status=variable vminpu=0.92 vmaxpu=1.1 

New Load.NTUC_18319_MOD2 bus=RM_18319.1.2 phases=1 conn=Delta kv=0.44 kw=-0.34 pf=0.92 Daily=cc18_Util Model=2 status=variable vminpu=0.92 vmaxpu=1.1 
New Load.NTUC_18319_MOD3 bus=RM_18319.1.2 phases=1 conn=Delta kv=0.44 kw=-0.34 pf=0.92 Daily=cc18_Util Model=3 status=variable vminpu=0.92 vmaxpu=1.1 

New Load.NTUC_74333_MOD2 bus=RM_74333.1.2 phases=1 conn=Delta kv=0.44 kw=-0.6385 pf=0.92 Daily=cc18_Util Model=2 status=variable vminpu=0.92 vmaxpu=1.1 
New Load.NTUC_74333_MOD3 bus=RM_74333.1.2 phases=1 conn=Delta kv=0.44 kw=-0.6385 pf=0.92 Daily=cc18_Util Model=3 status=variable vminpu=0.92 vmaxpu=1.1 

New Load.NTUC_70357_MOD2 bus=RM_70357.1 phases=1 conn=Wye kv=0.22 kw=-0.3225 pf=0.92 Daily=cc17_Util Model=2 status=variable vminpu=0.92 vmaxpu=1.1 
New Load.NTUC_70357_MOD3 bus=RM_70357.1 phases=1 conn=Wye kv=0.22 kw=-0.3225 pf=0.92 Daily=cc17_Util Model=3 status=variable vminpu=0.92 vmaxpu=1.1 

New Load.NTUC_72623_MOD2 bus=RM_72623.1.2 phases=1 conn=Delta kv=0.44 kw=-0.2495 pf=0.92 Daily=cc29_Util Model=2 status=variable vminpu=0.92 vmaxpu=1.1 
New Load.NTUC_72623_MOD3 bus=RM_72623.1.2 phases=1 conn=Delta kv=0.44 kw=-0.2495 pf=0.92 Daily=cc29_Util Model=3 status=variable vminpu=0.92 vmaxpu=1.1 

New Load.NTUC_44703_MOD2 bus=RM_44703.1 phases=1 conn=Wye kv=0.22 kw=-0.4635 pf=0.92 Daily=cc30_Util Model=2 status=variable vminpu=0.92 vmaxpu=1.1 
New Load.NTUC_44703_MOD3 bus=RM_44703.1 phases=1 conn=Wye kv=0.22 kw=-0.4635 pf=0.92 Daily=cc30_Util Model=3 status=variable vminpu=0.92 vmaxpu=1.1 

New Load.NTUC_80484_MOD2 bus=RM_80484.1 phases=1 conn=Wye kv=0.219 kw=-0.436 pf=0.92 Daily=cc18_Util Model=2 status=variable vminpu=0.92 vmaxpu=1.1 
New Load.NTUC_80484_MOD3 bus=RM_80484.1 phases=1 conn=Wye kv=0.219 kw=-0.436 pf=0.92 Daily=cc18_Util Model=3 status=variable vminpu=0.92 vmaxpu=1.1 

New Load.NTUC_40587_MOD2 bus=RM_40587.1 phases=1 conn=Wye kv=0.219 kw=-0.118 pf=0.92 Daily=cc16_Util Model=2 status=variable vminpu=0.92 vmaxpu=1.1 
New Load.NTUC_40587_MOD3 bus=RM_40587.1 phases=1 conn=Wye kv=0.219 kw=-0.118 pf=0.92 Daily=cc16_Util Model=3 status=variable vminpu=0.92 vmaxpu=1.1 

New Load.NTUC_68215_MOD2 bus=BT_17595_1.2 phases=1 conn=Wye kv=0.22 kw=-0.4545 pf=0.92 Daily=cc30_Util Model=2 status=variable vminpu=0.92 vmaxpu=1.1 
New Load.NTUC_68215_MOD3 bus=BT_17595_1.2 phases=1 conn=Wye kv=0.22 kw=-0.4545 pf=0.92 Daily=cc30_Util Model=3 status=variable vminpu=0.92 vmaxpu=1.1 

New Load.NTUC_70904_MOD2 bus=RM_70904.1.2 phases=1 conn=Delta kv=0.44 kw=-0.3805 pf=0.92 Daily=cc30_Util Model=2 status=variable vminpu=0.92 vmaxpu=1.1 
New Load.NTUC_70904_MOD3 bus=RM_70904.1.2 phases=1 conn=Delta kv=0.44 kw=-0.3805 pf=0.92 Daily=cc30_Util Model=3 status=variable vminpu=0.92 vmaxpu=1.1 

New Load.NTUC_18655_MOD2 bus=RM_18655.1.2 phases=1 conn=Delta kv=0.44 kw=-0.1865 pf=0.92 Daily=cc17_Util Model=2 status=variable vminpu=0.92 vmaxpu=1.1 
New Load.NTUC_18655_MOD3 bus=RM_18655.1.2 phases=1 conn=Delta kv=0.44 kw=-0.1865 pf=0.92 Daily=cc17_Util Model=3 status=variable vminpu=0.92 vmaxpu=1.1 

New Load.NTUC_39124_MOD2 bus=RM_39124.1 phases=1 conn=Wye kv=0.22 kw=-0.3255 pf=0.92 Daily=cc29_Util Model=2 status=variable vminpu=0.92 vmaxpu=1.1 
New Load.NTUC_39124_MOD3 bus=RM_39124.1 phases=1 conn=Wye kv=0.22 kw=-0.3255 pf=0.92 Daily=cc29_Util Model=3 status=variable vminpu=0.92 vmaxpu=1.1 

New Load.NTUC_45871_MOD2 bus=RM_45871.1 phases=1 conn=Wye kv=0.22 kw=-0.0195 pf=0.92 Daily=cc29_Util Model=2 status=variable vminpu=0.92 vmaxpu=1.1 
New Load.NTUC_45871_MOD3 bus=RM_45871.1 phases=1 conn=Wye kv=0.22 kw=-0.0195 pf=0.92 Daily=cc29_Util Model=3 status=variable vminpu=0.92 vmaxpu=1.1 

New Load.NTUC_18113_MOD2 bus=RM_18113.1.2.3 phases=3 conn=Delta kv=0.38 kw=-0.154 pf=0.92 Daily=cc32_Util Model=2 status=variable vminpu=0.92 vmaxpu=1.1 
New Load.NTUC_18113_MOD3 bus=RM_18113.1.2.3 phases=3 conn=Delta kv=0.38 kw=-0.154 pf=0.92 Daily=cc32_Util Model=3 status=variable vminpu=0.92 vmaxpu=1.1 

New Load.NTUC_79362_MOD2 bus=RM_79362.1 phases=1 conn=Wye kv=0.219 kw=-0.272 pf=0.92 Daily=cc17_Util Model=2 status=variable vminpu=0.92 vmaxpu=1.1 
New Load.NTUC_79362_MOD3 bus=RM_79362.1 phases=1 conn=Wye kv=0.219 kw=-0.272 pf=0.92 Daily=cc17_Util Model=3 status=variable vminpu=0.92 vmaxpu=1.1 

New Load.NTUC_48884_MOD2 bus=RM_48884.1.2.3 phases=3 conn=Delta kv=0.38 kw=-3.033 pf=0.92 Daily=cc32_Util Model=2 status=variable vminpu=0.92 vmaxpu=1.1 
New Load.NTUC_48884_MOD3 bus=RM_48884.1.2.3 phases=3 conn=Delta kv=0.38 kw=-3.033 pf=0.92 Daily=cc32_Util Model=3 status=variable vminpu=0.92 vmaxpu=1.1 

New Load.NTUC_18160_MOD2 bus=RM_18160.1.2 phases=1 conn=Delta kv=0.44 kw=-0.3625 pf=0.92 Daily=cc18_Util Model=2 status=variable vminpu=0.92 vmaxpu=1.1 
New Load.NTUC_18160_MOD3 bus=RM_18160.1.2 phases=1 conn=Delta kv=0.44 kw=-0.3625 pf=0.92 Daily=cc18_Util Model=3 status=variable vminpu=0.92 vmaxpu=1.1 

New Load.NTUC_8569_MOD2 bus=RM_8569.1.2 phases=1 conn=Wye kv=0.22 kw=-1.1145 pf=0.92 Daily=cc31_Util Model=2 status=variable vminpu=0.92 vmaxpu=1.1 
New Load.NTUC_8569_MOD3 bus=RM_8569.1.2 phases=1 conn=Wye kv=0.22 kw=-1.1145 pf=0.92 Daily=cc31_Util Model=3 status=variable vminpu=0.92 vmaxpu=1.1 

New Load.NTUC_44904_MOD2 bus=RM_44904.1 phases=1 conn=Wye kv=0.22 kw=-0.3625 pf=0.92 Daily=cc30_Util Model=2 status=variable vminpu=0.92 vmaxpu=1.1 
New Load.NTUC_44904_MOD3 bus=RM_44904.1 phases=1 conn=Wye kv=0.22 kw=-0.3625 pf=0.92 Daily=cc30_Util Model=3 status=variable vminpu=0.92 vmaxpu=1.1 

New Load.NTUC_47855_MOD2 bus=RM_47855.2 phases=1 conn=Wye kv=0.219 kw=-0.305 pf=0.92 Daily=cc17_Util Model=2 status=variable vminpu=0.92 vmaxpu=1.1 
New Load.NTUC_47855_MOD3 bus=RM_47855.2 phases=1 conn=Wye kv=0.219 kw=-0.305 pf=0.92 Daily=cc17_Util Model=3 status=variable vminpu=0.92 vmaxpu=1.1 

New Load.NTUC_18777_MOD2 bus=RM_18777.1 phases=1 conn=Wye kv=0.22 kw=-0.6495 pf=0.92 Daily=cc18_Util Model=2 status=variable vminpu=0.92 vmaxpu=1.1 
New Load.NTUC_18777_MOD3 bus=RM_18777.1 phases=1 conn=Wye kv=0.22 kw=-0.6495 pf=0.92 Daily=cc18_Util Model=3 status=variable vminpu=0.92 vmaxpu=1.1 

New Load.NTUC_18785_MOD2 bus=RM_18785.3 phases=1 conn=Wye kv=0.219 kw=-0.338 pf=0.92 Daily=cc18_Util Model=2 status=variable vminpu=0.92 vmaxpu=1.1 
New Load.NTUC_18785_MOD3 bus=RM_18785.3 phases=1 conn=Wye kv=0.219 kw=-0.338 pf=0.92 Daily=cc18_Util Model=3 status=variable vminpu=0.92 vmaxpu=1.1 

New Load.NTUC_46611_MOD2 bus=RM_46611.1 phases=1 conn=Wye kv=0.22 kw=-0.2235 pf=0.92 Daily=cc17_Util Model=2 status=variable vminpu=0.92 vmaxpu=1.1 
New Load.NTUC_46611_MOD3 bus=RM_46611.1 phases=1 conn=Wye kv=0.22 kw=-0.2235 pf=0.92 Daily=cc17_Util Model=3 status=variable vminpu=0.92 vmaxpu=1.1 

New Load.NTUC_30720_MOD2 bus=RM_30720.1 phases=1 conn=Wye kv=0.22 kw=-0.1425 pf=0.92 Daily=cc29_Util Model=2 status=variable vminpu=0.92 vmaxpu=1.1 
New Load.NTUC_30720_MOD3 bus=RM_30720.1 phases=1 conn=Wye kv=0.22 kw=-0.1425 pf=0.92 Daily=cc29_Util Model=3 status=variable vminpu=0.92 vmaxpu=1.1 

New Load.NTUC_18778_MOD2 bus=RM_18778.1.2 phases=1 conn=Delta kv=0.44 kw=-0.7845 pf=0.92 Daily=cc30_Util Model=2 status=variable vminpu=0.92 vmaxpu=1.1 
New Load.NTUC_18778_MOD3 bus=RM_18778.1.2 phases=1 conn=Delta kv=0.44 kw=-0.7845 pf=0.92 Daily=cc30_Util Model=3 status=variable vminpu=0.92 vmaxpu=1.1 

New Load.NTUC_46619_MOD2 bus=RM_46619.1 phases=1 conn=Wye kv=0.22 kw=-0.052 pf=0.92 Daily=cc16_Util Model=2 status=variable vminpu=0.92 vmaxpu=1.1 
New Load.NTUC_46619_MOD3 bus=RM_46619.1 phases=1 conn=Wye kv=0.22 kw=-0.052 pf=0.92 Daily=cc16_Util Model=3 status=variable vminpu=0.92 vmaxpu=1.1 

New Load.NTUC_41746_MOD2 bus=RM_41746.1.2 phases=1 conn=Delta kv=0.44 kw=-1.4195 pf=0.92 Daily=cc31_Util Model=2 status=variable vminpu=0.92 vmaxpu=1.1 
New Load.NTUC_41746_MOD3 bus=RM_41746.1.2 phases=1 conn=Delta kv=0.44 kw=-1.4195 pf=0.92 Daily=cc31_Util Model=3 status=variable vminpu=0.92 vmaxpu=1.1 

New Load.NTUC_71794_MOD2 bus=RM_71794.1 phases=1 conn=Wye kv=0.219 kw=-0.316 pf=0.92 Daily=cc17_Util Model=2 status=variable vminpu=0.92 vmaxpu=1.1 
New Load.NTUC_71794_MOD3 bus=RM_71794.1 phases=1 conn=Wye kv=0.219 kw=-0.316 pf=0.92 Daily=cc17_Util Model=3 status=variable vminpu=0.92 vmaxpu=1.1 

New Load.NTUC_32305_MOD2 bus=RM_32305.1 phases=1 conn=Wye kv=0.22 kw=-0.2405 pf=0.92 Daily=cc29_Util Model=2 status=variable vminpu=0.92 vmaxpu=1.1 
New Load.NTUC_32305_MOD3 bus=RM_32305.1 phases=1 conn=Wye kv=0.22 kw=-0.2405 pf=0.92 Daily=cc29_Util Model=3 status=variable vminpu=0.92 vmaxpu=1.1 

New Load.NTUC_46088_MOD2 bus=RM_46088.1.2.3 phases=3 conn=Delta kv=0.38 kw=-7.6385 pf=0.92 Daily=cc27_Util Model=2 status=variable vminpu=0.92 vmaxpu=1.1 
New Load.NTUC_46088_MOD3 bus=RM_46088.1.2.3 phases=3 conn=Delta kv=0.38 kw=-7.6385 pf=0.92 Daily=cc27_Util Model=3 status=variable vminpu=0.92 vmaxpu=1.1 

New Load.NTUC_73452_MOD2 bus=BT_125392_1.1.2 phases=1 conn=Delta kv=0.38 kw=-0.3325 pf=0.92 Daily=cc18_Util Model=2 status=variable vminpu=0.92 vmaxpu=1.1 
New Load.NTUC_73452_MOD3 bus=BT_125392_1.1.2 phases=1 conn=Delta kv=0.38 kw=-0.3325 pf=0.92 Daily=cc18_Util Model=3 status=variable vminpu=0.92 vmaxpu=1.1 

New Load.NTUC_75364_MOD2 bus=BT_125392_1.1.2.3 phases=3 conn=Delta kv=0.38 kw=-0.018 pf=0.92 Daily=cc25_Util Model=2 status=variable vminpu=0.92 vmaxpu=1.1 
New Load.NTUC_75364_MOD3 bus=BT_125392_1.1.2.3 phases=3 conn=Delta kv=0.38 kw=-0.018 pf=0.92 Daily=cc25_Util Model=3 status=variable vminpu=0.92 vmaxpu=1.1 

New Load.NTUC_73460_MOD2 bus=BT_125392_1.1.2 phases=1 conn=Delta kv=0.38 kw=-0.084 pf=0.92 Daily=cc16_Util Model=2 status=variable vminpu=0.92 vmaxpu=1.1 
New Load.NTUC_73460_MOD3 bus=BT_125392_1.1.2 phases=1 conn=Delta kv=0.38 kw=-0.084 pf=0.92 Daily=cc16_Util Model=3 status=variable vminpu=0.92 vmaxpu=1.1 

New Load.NTUC_68964_MOD2 bus=RM_68964.1.2.3 phases=3 conn=Delta kv=0.38 kw=-4.603 pf=0.92 Daily=cc27_Util Model=2 status=variable vminpu=0.92 vmaxpu=1.1 
New Load.NTUC_68964_MOD3 bus=RM_68964.1.2.3 phases=3 conn=Delta kv=0.38 kw=-4.603 pf=0.92 Daily=cc27_Util Model=3 status=variable vminpu=0.92 vmaxpu=1.1 

New Load.NTUC_26631_MOD2 bus=RM_26631.1.2 phases=1 conn=Delta kv=0.44 kw=-0.5005 pf=0.92 Daily=cc18_Util Model=2 status=variable vminpu=0.92 vmaxpu=1.1 
New Load.NTUC_26631_MOD3 bus=RM_26631.1.2 phases=1 conn=Delta kv=0.44 kw=-0.5005 pf=0.92 Daily=cc18_Util Model=3 status=variable vminpu=0.92 vmaxpu=1.1 

New Load.NTUC_8722_MOD2 bus=RM_8722.1.2 phases=1 conn=Delta kv=0.44 kw=-0.182 pf=0.92 Daily=cc17_Util Model=2 status=variable vminpu=0.92 vmaxpu=1.1 
New Load.NTUC_8722_MOD3 bus=RM_8722.1.2 phases=1 conn=Delta kv=0.44 kw=-0.182 pf=0.92 Daily=cc17_Util Model=3 status=variable vminpu=0.92 vmaxpu=1.1 

New Load.NTUC_77208_MOD2 bus=RM_77208.1 phases=1 conn=Wye kv=0.22 kw=-0.076 pf=0.92 Daily=cc29_Util Model=2 status=variable vminpu=0.92 vmaxpu=1.1 
New Load.NTUC_77208_MOD3 bus=RM_77208.1 phases=1 conn=Wye kv=0.22 kw=-0.076 pf=0.92 Daily=cc29_Util Model=3 status=variable vminpu=0.92 vmaxpu=1.1 

New Load.NTUC_77781_MOD2 bus=RM_77781.2 phases=1 conn=Wye kv=0.219 kw=-0.233 pf=0.92 Daily=cc29_Util Model=2 status=variable vminpu=0.92 vmaxpu=1.1 
New Load.NTUC_77781_MOD3 bus=RM_77781.2 phases=1 conn=Wye kv=0.219 kw=-0.233 pf=0.92 Daily=cc29_Util Model=3 status=variable vminpu=0.92 vmaxpu=1.1 

New Load.NTUC_46326_MOD2 bus=RM_46326.1.2.3 phases=3 conn=Delta kv=0.38 kw=-0.333 pf=0.92 Daily=cc29_Util Model=2 status=variable vminpu=0.92 vmaxpu=1.1 
New Load.NTUC_46326_MOD3 bus=RM_46326.1.2.3 phases=3 conn=Delta kv=0.38 kw=-0.333 pf=0.92 Daily=cc29_Util Model=3 status=variable vminpu=0.92 vmaxpu=1.1 

New Load.NTUC_44543_MOD2 bus=RM_44543.2 phases=1 conn=Wye kv=0.22 kw=-0.047 pf=0.92 Daily=cc29_Util Model=2 status=variable vminpu=0.92 vmaxpu=1.1 
New Load.NTUC_44543_MOD3 bus=RM_44543.2 phases=1 conn=Wye kv=0.22 kw=-0.047 pf=0.92 Daily=cc29_Util Model=3 status=variable vminpu=0.92 vmaxpu=1.1 

New Load.NTUC_20336_MOD2 bus=RM_20336.1.2 phases=1 conn=Delta kv=0.44 kw=-0.4005 pf=0.92 Daily=cc30_Util Model=2 status=variable vminpu=0.92 vmaxpu=1.1 
New Load.NTUC_20336_MOD3 bus=RM_20336.1.2 phases=1 conn=Delta kv=0.44 kw=-0.4005 pf=0.92 Daily=cc30_Util Model=3 status=variable vminpu=0.92 vmaxpu=1.1 

New Load.NTUC_76955_MOD2 bus=RM_76955.1 phases=1 conn=Wye kv=0.22 kw=-0.086 pf=0.92 Daily=cc16_Util Model=2 status=variable vminpu=0.92 vmaxpu=1.1 
New Load.NTUC_76955_MOD3 bus=RM_76955.1 phases=1 conn=Wye kv=0.22 kw=-0.086 pf=0.92 Daily=cc16_Util Model=3 status=variable vminpu=0.92 vmaxpu=1.1 

New Load.NTUC_72500_MOD2 bus=RM_72500.1.2 phases=1 conn=Delta kv=0.44 kw=-0.2655 pf=0.92 Daily=cc17_Util Model=2 status=variable vminpu=0.92 vmaxpu=1.1 
New Load.NTUC_72500_MOD3 bus=RM_72500.1.2 phases=1 conn=Delta kv=0.44 kw=-0.2655 pf=0.92 Daily=cc17_Util Model=3 status=variable vminpu=0.92 vmaxpu=1.1 

New Load.NTUC_75812_MOD2 bus=RM_75812.1.2 phases=1 conn=Delta kv=0.38 kw=-0.4735 pf=0.92 Daily=cc18_Util Model=2 status=variable vminpu=0.92 vmaxpu=1.1 
New Load.NTUC_75812_MOD3 bus=RM_75812.1.2 phases=1 conn=Delta kv=0.38 kw=-0.4735 pf=0.92 Daily=cc18_Util Model=3 status=variable vminpu=0.92 vmaxpu=1.1 

New Load.NTUC_87514_MOD2 bus=RM_87514.1 phases=1 conn=Wye kv=0.219 kw=-0.0055 pf=0.92 Daily=cc16_Util Model=2 status=variable vminpu=0.92 vmaxpu=1.1 
New Load.NTUC_87514_MOD3 bus=RM_87514.1 phases=1 conn=Wye kv=0.219 kw=-0.0055 pf=0.92 Daily=cc16_Util Model=3 status=variable vminpu=0.92 vmaxpu=1.1 

New Load.NTUC_47912_MOD2 bus=RM_47912.1 phases=1 conn=Wye kv=0.22 kw=-0.0485 pf=0.92 Daily=cc16_Util Model=2 status=variable vminpu=0.92 vmaxpu=1.1 
New Load.NTUC_47912_MOD3 bus=RM_47912.1 phases=1 conn=Wye kv=0.22 kw=-0.0485 pf=0.92 Daily=cc16_Util Model=3 status=variable vminpu=0.92 vmaxpu=1.1 

New Load.NTUC_53426_MOD2 bus=RM_53426.1 phases=1 conn=Wye kv=0.22 kw=-0.0545 pf=0.92 Daily=cc29_Util Model=2 status=variable vminpu=0.92 vmaxpu=1.1 
New Load.NTUC_53426_MOD3 bus=RM_53426.1 phases=1 conn=Wye kv=0.22 kw=-0.0545 pf=0.92 Daily=cc29_Util Model=3 status=variable vminpu=0.92 vmaxpu=1.1 

New Load.NTUC_77865_MOD2 bus=RM_77865.1.2 phases=1 conn=Delta kv=0.44 kw=-0.1335 pf=0.92 Daily=cc29_Util Model=2 status=variable vminpu=0.92 vmaxpu=1.1 
New Load.NTUC_77865_MOD3 bus=RM_77865.1.2 phases=1 conn=Delta kv=0.44 kw=-0.1335 pf=0.92 Daily=cc29_Util Model=3 status=variable vminpu=0.92 vmaxpu=1.1 

New Load.NTUC_18717_MOD2 bus=RM_18717.1.2 phases=1 conn=Delta kv=0.44 kw=-0.8335 pf=0.92 Daily=cc30_Util Model=2 status=variable vminpu=0.92 vmaxpu=1.1 
New Load.NTUC_18717_MOD3 bus=RM_18717.1.2 phases=1 conn=Delta kv=0.44 kw=-0.8335 pf=0.92 Daily=cc30_Util Model=3 status=variable vminpu=0.92 vmaxpu=1.1 

New Load.NTUC_57124_MOD2 bus=RM_57124.2 phases=1 conn=Wye kv=0.22 kw=-0.581 pf=0.92 Daily=cc30_Util Model=2 status=variable vminpu=0.92 vmaxpu=1.1 
New Load.NTUC_57124_MOD3 bus=RM_57124.2 phases=1 conn=Wye kv=0.22 kw=-0.581 pf=0.92 Daily=cc30_Util Model=3 status=variable vminpu=0.92 vmaxpu=1.1 

New Load.NTUC_81003_MOD2 bus=RM_81003.1.2 phases=1 conn=Delta kv=0.44 kw=-0.877 pf=0.92 Daily=cc30_Util Model=2 status=variable vminpu=0.92 vmaxpu=1.1 
New Load.NTUC_81003_MOD3 bus=RM_81003.1.2 phases=1 conn=Delta kv=0.44 kw=-0.877 pf=0.92 Daily=cc30_Util Model=3 status=variable vminpu=0.92 vmaxpu=1.1 

New Load.NTUC_84917_MOD2 bus=RM_84917.1 phases=1 conn=Wye kv=0.22 kw=-0.074 pf=0.92 Daily=cc25_Util Model=2 status=variable vminpu=0.92 vmaxpu=1.1 
New Load.NTUC_84917_MOD3 bus=RM_84917.1 phases=1 conn=Wye kv=0.22 kw=-0.074 pf=0.92 Daily=cc25_Util Model=3 status=variable vminpu=0.92 vmaxpu=1.1 

New Load.NTUC_25586_MOD2 bus=RM_25586.1.2 phases=1 conn=Delta kv=0.44 kw=-1.626 pf=0.92 Daily=cc32_Util Model=2 status=variable vminpu=0.92 vmaxpu=1.1 
New Load.NTUC_25586_MOD3 bus=RM_25586.1.2 phases=1 conn=Delta kv=0.44 kw=-1.626 pf=0.92 Daily=cc32_Util Model=3 status=variable vminpu=0.92 vmaxpu=1.1 

New Load.NTUC_22792_MOD2 bus=RM_22792.1.2 phases=1 conn=Delta kv=0.44 kw=-1.137 pf=0.92 Daily=cc31_Util Model=2 status=variable vminpu=0.92 vmaxpu=1.1 
New Load.NTUC_22792_MOD3 bus=RM_22792.1.2 phases=1 conn=Delta kv=0.44 kw=-1.137 pf=0.92 Daily=cc31_Util Model=3 status=variable vminpu=0.92 vmaxpu=1.1 

New Load.NTUC_39146_MOD2 bus=RM_39146.1.2.3 phases=3 conn=Delta kv=0.38 kw=-0.154 pf=0.92 Daily=cc32_Util Model=2 status=variable vminpu=0.92 vmaxpu=1.1 
New Load.NTUC_39146_MOD3 bus=RM_39146.1.2.3 phases=3 conn=Delta kv=0.38 kw=-0.154 pf=0.92 Daily=cc32_Util Model=3 status=variable vminpu=0.92 vmaxpu=1.1 

New Load.NTUC_18484_MOD2 bus=RM_18484.1 phases=1 conn=Wye kv=0.219 kw=-0.3855 pf=0.92 Daily=cc18_Util Model=2 status=variable vminpu=0.92 vmaxpu=1.1 
New Load.NTUC_18484_MOD3 bus=RM_18484.1 phases=1 conn=Wye kv=0.219 kw=-0.3855 pf=0.92 Daily=cc18_Util Model=3 status=variable vminpu=0.92 vmaxpu=1.1 

New Load.NTUC_57579_MOD2 bus=RM_57579.1 phases=1 conn=Wye kv=0.219 kw=-0.544 pf=0.92 Daily=cc18_Util Model=2 status=variable vminpu=0.92 vmaxpu=1.1 
New Load.NTUC_57579_MOD3 bus=RM_57579.1 phases=1 conn=Wye kv=0.219 kw=-0.544 pf=0.92 Daily=cc18_Util Model=3 status=variable vminpu=0.92 vmaxpu=1.1 

New Load.NTUC_41033_MOD2 bus=RM_41033.1.3 phases=1 conn=Delta kv=0.38 kw=-0.11 pf=0.92 Daily=cc17_Util Model=2 status=variable vminpu=0.92 vmaxpu=1.1 
New Load.NTUC_41033_MOD3 bus=RM_41033.1.3 phases=1 conn=Delta kv=0.38 kw=-0.11 pf=0.92 Daily=cc17_Util Model=3 status=variable vminpu=0.92 vmaxpu=1.1 

New Load.NTUC_72619_MOD2 bus=RM_72619.3 phases=1 conn=Wye kv=0.219 kw=-0.559 pf=0.92 Daily=cc18_Util Model=2 status=variable vminpu=0.92 vmaxpu=1.1 
New Load.NTUC_72619_MOD3 bus=RM_72619.3 phases=1 conn=Wye kv=0.219 kw=-0.559 pf=0.92 Daily=cc18_Util Model=3 status=variable vminpu=0.92 vmaxpu=1.1 

New Load.NTUC_64936_MOD2 bus=RM_64936.1.2 phases=1 conn=Delta kv=0.44 kw=-0.7975 pf=0.92 Daily=cc31_Util Model=2 status=variable vminpu=0.92 vmaxpu=1.1 
New Load.NTUC_64936_MOD3 bus=RM_64936.1.2 phases=1 conn=Delta kv=0.44 kw=-0.7975 pf=0.92 Daily=cc31_Util Model=3 status=variable vminpu=0.92 vmaxpu=1.1 

New Load.NTUC_80994_MOD2 bus=RM_80994.1.2 phases=1 conn=Delta kv=0.44 kw=-0.047 pf=0.92 Daily=cc29_Util Model=2 status=variable vminpu=0.92 vmaxpu=1.1 
New Load.NTUC_80994_MOD3 bus=RM_80994.1.2 phases=1 conn=Delta kv=0.44 kw=-0.047 pf=0.92 Daily=cc29_Util Model=3 status=variable vminpu=0.92 vmaxpu=1.1 

New Load.NTUC_18708_MOD2 bus=RM_18708.1.2 phases=1 conn=Delta kv=0.44 kw=-1.5755 pf=0.92 Daily=cc32_Util Model=2 status=variable vminpu=0.92 vmaxpu=1.1 
New Load.NTUC_18708_MOD3 bus=RM_18708.1.2 phases=1 conn=Delta kv=0.44 kw=-1.5755 pf=0.92 Daily=cc32_Util Model=3 status=variable vminpu=0.92 vmaxpu=1.1 

New Load.NTUC_18707_MOD2 bus=BT_22917_1.1.2 phases=1 conn=Delta kv=0.44 kw=-0.09 pf=0.92 Daily=cc30_Util Model=2 status=variable vminpu=0.92 vmaxpu=1.1 
New Load.NTUC_18707_MOD3 bus=BT_22917_1.1.2 phases=1 conn=Delta kv=0.44 kw=-0.09 pf=0.92 Daily=cc30_Util Model=3 status=variable vminpu=0.92 vmaxpu=1.1 

New Load.NTUC_18187_MOD2 bus=BT_138439_1.1.2.3 phases=3 conn=Delta kv=0.38 kw=-7.9595 pf=0.92 Daily=cc33_Util Model=2 status=variable vminpu=0.92 vmaxpu=1.1 
New Load.NTUC_18187_MOD3 bus=BT_138439_1.1.2.3 phases=3 conn=Delta kv=0.38 kw=-7.9595 pf=0.92 Daily=cc33_Util Model=3 status=variable vminpu=0.92 vmaxpu=1.1 

New Load.NTUC_80995_MOD2 bus=RM_80995.1.2.3 phases=3 conn=Delta kv=0.38 kw=-0.7545 pf=0.92 Daily=cc39_Util Model=2 status=variable vminpu=0.92 vmaxpu=1.1 
New Load.NTUC_80995_MOD3 bus=RM_80995.1.2.3 phases=3 conn=Delta kv=0.38 kw=-0.7545 pf=0.92 Daily=cc39_Util Model=3 status=variable vminpu=0.92 vmaxpu=1.1 

New Load.NTUC_73459_MOD2 bus=RM_73459.1.2.3 phases=1 conn=Wye kv=0.219 kw=-0.118 pf=0.92 Daily=cc16_Util Model=2 status=variable vminpu=0.92 vmaxpu=1.1 
New Load.NTUC_73459_MOD3 bus=RM_73459.1.2.3 phases=1 conn=Wye kv=0.219 kw=-0.118 pf=0.92 Daily=cc16_Util Model=3 status=variable vminpu=0.92 vmaxpu=1.1 

New Load.NTUC_68244_MOD2 bus=BT_40293_1.1.2.3 phases=3 conn=Delta kv=0.38 kw=-0.8755 pf=0.92 Daily=cc19_Util Model=2 status=variable vminpu=0.92 vmaxpu=1.1 
New Load.NTUC_68244_MOD3 bus=BT_40293_1.1.2.3 phases=3 conn=Delta kv=0.38 kw=-0.8755 pf=0.92 Daily=cc19_Util Model=3 status=variable vminpu=0.92 vmaxpu=1.1 

New Load.NTUC_72496_MOD2 bus=RM_72496.1.2 phases=1 conn=Delta kv=0.38 kw=-1.7525 pf=0.92 Daily=cc26_Util Model=2 status=variable vminpu=0.92 vmaxpu=1.1 
New Load.NTUC_72496_MOD3 bus=RM_72496.1.2 phases=1 conn=Delta kv=0.38 kw=-1.7525 pf=0.92 Daily=cc26_Util Model=3 status=variable vminpu=0.92 vmaxpu=1.1 

New Load.NTUC_72497_MOD2 bus=BT_40293_1.1 phases=1 conn=Wye kv=0.219 kw=-0.2655 pf=0.92 Daily=cc17_Util Model=2 status=variable vminpu=0.92 vmaxpu=1.1 
New Load.NTUC_72497_MOD3 bus=BT_40293_1.1 phases=1 conn=Wye kv=0.219 kw=-0.2655 pf=0.92 Daily=cc17_Util Model=3 status=variable vminpu=0.92 vmaxpu=1.1 

New Load.NTUC_31269_MOD2 bus=RM_31269.1 phases=1 conn=Wye kv=0.219 kw=-0.0035 pf=0.92 Daily=cc16_Util Model=2 status=variable vminpu=0.92 vmaxpu=1.1 
New Load.NTUC_31269_MOD3 bus=RM_31269.1 phases=1 conn=Wye kv=0.219 kw=-0.0035 pf=0.92 Daily=cc16_Util Model=3 status=variable vminpu=0.92 vmaxpu=1.1 

New Load.NTUC_84765_MOD2 bus=RM_84765.1.2.3 phases=3 conn=Delta kv=0.38 kw=-0.0405 pf=0.92 Daily=cc25_Util Model=2 status=variable vminpu=0.92 vmaxpu=1.1 
New Load.NTUC_84765_MOD3 bus=RM_84765.1.2.3 phases=3 conn=Delta kv=0.38 kw=-0.0405 pf=0.92 Daily=cc25_Util Model=3 status=variable vminpu=0.92 vmaxpu=1.1 

New Load.NTUC_82979_MOD2 bus=BT_138854_1.1.2.3 phases=3 conn=Delta kv=0.38 kw=-0.2595 pf=0.92 Daily=cc26_Util Model=2 status=variable vminpu=0.92 vmaxpu=1.1 
New Load.NTUC_82979_MOD3 bus=BT_138854_1.1.2.3 phases=3 conn=Delta kv=0.38 kw=-0.2595 pf=0.92 Daily=cc26_Util Model=3 status=variable vminpu=0.92 vmaxpu=1.1 

New Load.NTUC_82981_MOD2 bus=BT_138854_1.1 phases=1 conn=Wye kv=0.219 kw=-0.25 pf=0.92 Daily=cc25_Util Model=2 status=variable vminpu=0.92 vmaxpu=1.1 
New Load.NTUC_82981_MOD3 bus=BT_138854_1.1 phases=1 conn=Wye kv=0.219 kw=-0.25 pf=0.92 Daily=cc25_Util Model=3 status=variable vminpu=0.92 vmaxpu=1.1 

New Load.NTUC_82980_MOD2 bus=BT_138854_1.1 phases=1 conn=Wye kv=0.219 kw=-0.452 pf=0.92 Daily=cc25_Util Model=2 status=variable vminpu=0.92 vmaxpu=1.1 
New Load.NTUC_82980_MOD3 bus=BT_138854_1.1 phases=1 conn=Wye kv=0.219 kw=-0.452 pf=0.92 Daily=cc25_Util Model=3 status=variable vminpu=0.92 vmaxpu=1.1 

New Load.NTUC_82987_MOD2 bus=RM_82987.1 phases=1 conn=Wye kv=0.22 kw=-0.1735 pf=0.92 Daily=cc29_Util Model=2 status=variable vminpu=0.92 vmaxpu=1.1 
New Load.NTUC_82987_MOD3 bus=RM_82987.1 phases=1 conn=Wye kv=0.22 kw=-0.1735 pf=0.92 Daily=cc29_Util Model=3 status=variable vminpu=0.92 vmaxpu=1.1 

New Load.NTUC_39019_MOD2 bus=RM_39019.1.2 phases=1 conn=Delta kv=0.44 kw=-0.469 pf=0.92 Daily=cc30_Util Model=2 status=variable vminpu=0.92 vmaxpu=1.1 
New Load.NTUC_39019_MOD3 bus=RM_39019.1.2 phases=1 conn=Delta kv=0.44 kw=-0.469 pf=0.92 Daily=cc30_Util Model=3 status=variable vminpu=0.92 vmaxpu=1.1 

New Load.NTUC_77543_MOD2 bus=RM_77543.1.2.3 phases=3 conn=Delta kv=0.38 kw=-0.7595 pf=0.92 Daily=cc32_Util Model=2 status=variable vminpu=0.92 vmaxpu=1.1 
New Load.NTUC_77543_MOD3 bus=RM_77543.1.2.3 phases=3 conn=Delta kv=0.38 kw=-0.7595 pf=0.92 Daily=cc32_Util Model=3 status=variable vminpu=0.92 vmaxpu=1.1 

New Load.NTUC_82999_MOD2 bus=RM_82999.1 phases=1 conn=Wye kv=0.22 kw=-0.2835 pf=0.92 Daily=cc17_Util Model=2 status=variable vminpu=0.92 vmaxpu=1.1 
New Load.NTUC_82999_MOD3 bus=RM_82999.1 phases=1 conn=Wye kv=0.22 kw=-0.2835 pf=0.92 Daily=cc17_Util Model=3 status=variable vminpu=0.92 vmaxpu=1.1 

New Load.NTUC_87083_MOD2 bus=RM_87083.1.2 phases=1 conn=Delta kv=0.44 kw=-0.036 pf=0.92 Daily=cc16_Util Model=2 status=variable vminpu=0.92 vmaxpu=1.1 
New Load.NTUC_87083_MOD3 bus=RM_87083.1.2 phases=1 conn=Delta kv=0.44 kw=-0.036 pf=0.92 Daily=cc16_Util Model=3 status=variable vminpu=0.92 vmaxpu=1.1 

New Load.NTUC_8805_MOD2 bus=RM_8805.2 phases=1 conn=Wye kv=0.22 kw=-0.0535 pf=0.92 Daily=cc16_Util Model=2 status=variable vminpu=0.92 vmaxpu=1.1 
New Load.NTUC_8805_MOD3 bus=RM_8805.2 phases=1 conn=Wye kv=0.22 kw=-0.0535 pf=0.92 Daily=cc16_Util Model=3 status=variable vminpu=0.92 vmaxpu=1.1 

New Load.NTUC_80996_MOD2 bus=RM_80996.1.2 phases=1 conn=Delta kv=0.44 kw=-0.6005 pf=0.92 Daily=cc30_Util Model=2 status=variable vminpu=0.92 vmaxpu=1.1 
New Load.NTUC_80996_MOD3 bus=RM_80996.1.2 phases=1 conn=Delta kv=0.44 kw=-0.6005 pf=0.92 Daily=cc30_Util Model=3 status=variable vminpu=0.92 vmaxpu=1.1 

New Load.NTUC_46856_MOD2 bus=RM_46856.2 phases=1 conn=Wye kv=0.219 kw=-0.294 pf=0.92 Daily=cc17_Util Model=2 status=variable vminpu=0.92 vmaxpu=1.1 
New Load.NTUC_46856_MOD3 bus=RM_46856.2 phases=1 conn=Wye kv=0.219 kw=-0.294 pf=0.92 Daily=cc17_Util Model=3 status=variable vminpu=0.92 vmaxpu=1.1 

New Load.NTUC_18761_MOD2 bus=RM_18761.2 phases=1 conn=Wye kv=0.219 kw=-0.296 pf=0.92 Daily=cc30_Util Model=2 status=variable vminpu=0.92 vmaxpu=1.1 
New Load.NTUC_18761_MOD3 bus=RM_18761.2 phases=1 conn=Wye kv=0.219 kw=-0.296 pf=0.92 Daily=cc30_Util Model=3 status=variable vminpu=0.92 vmaxpu=1.1 

New Load.NTUC_18760_MOD2 bus=RM_18760.1.2.3 phases=3 conn=Delta kv=0.38 kw=-0.613 pf=0.92 Daily=cc30_Util Model=2 status=variable vminpu=0.92 vmaxpu=1.1 
New Load.NTUC_18760_MOD3 bus=RM_18760.1.2.3 phases=3 conn=Delta kv=0.38 kw=-0.613 pf=0.92 Daily=cc30_Util Model=3 status=variable vminpu=0.92 vmaxpu=1.1 

New Load.NTUC_73991_MOD2 bus=RM_73991.1.2.3 phases=3 conn=Delta kv=0.38 kw=-0.5645 pf=0.92 Daily=cc18_Util Model=2 status=variable vminpu=0.92 vmaxpu=1.1 
New Load.NTUC_73991_MOD3 bus=RM_73991.1.2.3 phases=3 conn=Delta kv=0.38 kw=-0.5645 pf=0.92 Daily=cc18_Util Model=3 status=variable vminpu=0.92 vmaxpu=1.1 

New Load.NTUC_61752_MOD2 bus=RM_61752.1 phases=1 conn=Wye kv=0.219 kw=-0.2715 pf=0.92 Daily=cc29_Util Model=2 status=variable vminpu=0.92 vmaxpu=1.1 
New Load.NTUC_61752_MOD3 bus=RM_61752.1 phases=1 conn=Wye kv=0.219 kw=-0.2715 pf=0.92 Daily=cc29_Util Model=3 status=variable vminpu=0.92 vmaxpu=1.1 

New Load.NTUC_54505_MOD2 bus=RM_54505.1 phases=1 conn=Wye kv=0.219 kw=-0.5125 pf=0.92 Daily=cc30_Util Model=2 status=variable vminpu=0.92 vmaxpu=1.1 
New Load.NTUC_54505_MOD3 bus=RM_54505.1 phases=1 conn=Wye kv=0.219 kw=-0.5125 pf=0.92 Daily=cc30_Util Model=3 status=variable vminpu=0.92 vmaxpu=1.1 

New Load.NTUC_81002_MOD2 bus=RM_81002.1.2.3 phases=3 conn=Delta kv=0.38 kw=-0.18 pf=0.92 Daily=cc30_Util Model=2 status=variable vminpu=0.92 vmaxpu=1.1 
New Load.NTUC_81002_MOD3 bus=RM_81002.1.2.3 phases=3 conn=Delta kv=0.38 kw=-0.18 pf=0.92 Daily=cc30_Util Model=3 status=variable vminpu=0.92 vmaxpu=1.1 

New Load.NTUC_8642_MOD2 bus=RM_8642.1.2 phases=1 conn=Delta kv=0.44 kw=-0.077 pf=0.92 Daily=cc31_Util Model=2 status=variable vminpu=0.92 vmaxpu=1.1 
New Load.NTUC_8642_MOD3 bus=RM_8642.1.2 phases=1 conn=Delta kv=0.44 kw=-0.077 pf=0.92 Daily=cc31_Util Model=3 status=variable vminpu=0.92 vmaxpu=1.1 

New Load.NTUC_42781_MOD2 bus=RM_42781.1.2.3 phases=3 conn=Delta kv=0.38 kw=-0.154 pf=0.92 Daily=cc31_Util Model=2 status=variable vminpu=0.92 vmaxpu=1.1 
New Load.NTUC_42781_MOD3 bus=RM_42781.1.2.3 phases=3 conn=Delta kv=0.38 kw=-0.154 pf=0.92 Daily=cc31_Util Model=3 status=variable vminpu=0.92 vmaxpu=1.1 

New Load.NTUC_67439_MOD2 bus=RM_67439.3 phases=1 conn=Wye kv=0.219 kw=-0.1735 pf=0.92 Daily=cc29_Util Model=2 status=variable vminpu=0.92 vmaxpu=1.1 
New Load.NTUC_67439_MOD3 bus=RM_67439.3 phases=1 conn=Wye kv=0.219 kw=-0.1735 pf=0.92 Daily=cc29_Util Model=3 status=variable vminpu=0.92 vmaxpu=1.1 

New Load.NTUC_45267_MOD2 bus=RM_45267.1 phases=1 conn=Wye kv=0.219 kw=-0.0545 pf=0.92 Daily=cc30_Util Model=2 status=variable vminpu=0.92 vmaxpu=1.1 
New Load.NTUC_45267_MOD3 bus=RM_45267.1 phases=1 conn=Wye kv=0.219 kw=-0.0545 pf=0.92 Daily=cc30_Util Model=3 status=variable vminpu=0.92 vmaxpu=1.1 

New Load.NTUC_18731_MOD2 bus=RM_18731.1 phases=1 conn=Wye kv=0.22 kw=-0.226 pf=0.92 Daily=cc29_Util Model=2 status=variable vminpu=0.92 vmaxpu=1.1 
New Load.NTUC_18731_MOD3 bus=RM_18731.1 phases=1 conn=Wye kv=0.22 kw=-0.226 pf=0.92 Daily=cc29_Util Model=3 status=variable vminpu=0.92 vmaxpu=1.1 

New Load.NTUC_82117_MOD2 bus=RM_82117.1.2.3 phases=3 conn=Delta kv=0.38 kw=-0.235 pf=0.92 Daily=cc17_Util Model=2 status=variable vminpu=0.92 vmaxpu=1.1 
New Load.NTUC_82117_MOD3 bus=RM_82117.1.2.3 phases=3 conn=Delta kv=0.38 kw=-0.235 pf=0.92 Daily=cc17_Util Model=3 status=variable vminpu=0.92 vmaxpu=1.1 

New Load.NTUC_29480_MOD2 bus=RM_29480.1.2 phases=1 conn=Delta kv=0.38 kw=-2.018 pf=0.92 Daily=cc32_Util Model=2 status=variable vminpu=0.92 vmaxpu=1.1 
New Load.NTUC_29480_MOD3 bus=RM_29480.1.2 phases=1 conn=Delta kv=0.38 kw=-2.018 pf=0.92 Daily=cc32_Util Model=3 status=variable vminpu=0.92 vmaxpu=1.1 

New Load.NTUC_65579_MOD2 bus=RM_65579.2 phases=1 conn=Wye kv=0.22 kw=-0.1555 pf=0.92 Daily=cc29_Util Model=2 status=variable vminpu=0.92 vmaxpu=1.1 
New Load.NTUC_65579_MOD3 bus=RM_65579.2 phases=1 conn=Wye kv=0.22 kw=-0.1555 pf=0.92 Daily=cc29_Util Model=3 status=variable vminpu=0.92 vmaxpu=1.1 

New Load.NTUC_82189_MOD2 bus=RM_82189.1.2 phases=1 conn=Delta kv=0.44 kw=-0.3735 pf=0.92 Daily=cc30_Util Model=2 status=variable vminpu=0.92 vmaxpu=1.1 
New Load.NTUC_82189_MOD3 bus=RM_82189.1.2 phases=1 conn=Delta kv=0.44 kw=-0.3735 pf=0.92 Daily=cc30_Util Model=3 status=variable vminpu=0.92 vmaxpu=1.1 

New Load.NTUC_84955_MOD2 bus=RM_84955.1 phases=1 conn=Wye kv=0.22 kw=-0.123 pf=0.92 Daily=cc29_Util Model=2 status=variable vminpu=0.92 vmaxpu=1.1 
New Load.NTUC_84955_MOD3 bus=RM_84955.1 phases=1 conn=Wye kv=0.22 kw=-0.123 pf=0.92 Daily=cc29_Util Model=3 status=variable vminpu=0.92 vmaxpu=1.1 

New Load.NTUC_18479_MOD2 bus=RM_18479.1.2 phases=1 conn=Delta kv=0.44 kw=-0.2525 pf=0.92 Daily=cc17_Util Model=2 status=variable vminpu=0.92 vmaxpu=1.1 
New Load.NTUC_18479_MOD3 bus=RM_18479.1.2 phases=1 conn=Delta kv=0.44 kw=-0.2525 pf=0.92 Daily=cc17_Util Model=3 status=variable vminpu=0.92 vmaxpu=1.1 

New Load.NTUC_74327_MOD2 bus=RM_74327.1.2 phases=1 conn=Delta kv=0.44 kw=-0.3335 pf=0.92 Daily=cc17_Util Model=2 status=variable vminpu=0.92 vmaxpu=1.1 
New Load.NTUC_74327_MOD3 bus=RM_74327.1.2 phases=1 conn=Delta kv=0.44 kw=-0.3335 pf=0.92 Daily=cc17_Util Model=3 status=variable vminpu=0.92 vmaxpu=1.1 

New Load.NTUC_20657_MOD2 bus=RM_20657.1.2 phases=1 conn=Delta kv=0.44 kw=-0.8825 pf=0.92 Daily=cc31_Util Model=2 status=variable vminpu=0.92 vmaxpu=1.1 
New Load.NTUC_20657_MOD3 bus=RM_20657.1.2 phases=1 conn=Delta kv=0.44 kw=-0.8825 pf=0.92 Daily=cc31_Util Model=3 status=variable vminpu=0.92 vmaxpu=1.1 

New Load.NTUC_39925_MOD2 bus=RM_39925.1 phases=1 conn=Wye kv=0.22 kw=-0.068 pf=0.92 Daily=cc16_Util Model=2 status=variable vminpu=0.92 vmaxpu=1.1 
New Load.NTUC_39925_MOD3 bus=RM_39925.1 phases=1 conn=Wye kv=0.22 kw=-0.068 pf=0.92 Daily=cc16_Util Model=3 status=variable vminpu=0.92 vmaxpu=1.1 

New Load.NTUC_19801_MOD2 bus=RM_19801.1.2.3 phases=3 conn=Delta kv=0.38 kw=-3.5225 pf=0.92 Daily=cc33_Util Model=2 status=variable vminpu=0.92 vmaxpu=1.1 
New Load.NTUC_19801_MOD3 bus=RM_19801.1.2.3 phases=3 conn=Delta kv=0.38 kw=-3.5225 pf=0.92 Daily=cc33_Util Model=3 status=variable vminpu=0.92 vmaxpu=1.1 

New Load.NTUC_32155_MOD2 bus=RM_32155.1.2 phases=1 conn=Delta kv=0.44 kw=-0.2205 pf=0.92 Daily=cc29_Util Model=2 status=variable vminpu=0.92 vmaxpu=1.1 
New Load.NTUC_32155_MOD3 bus=RM_32155.1.2 phases=1 conn=Delta kv=0.44 kw=-0.2205 pf=0.92 Daily=cc29_Util Model=3 status=variable vminpu=0.92 vmaxpu=1.1 

New Load.NTUC_82190_MOD2 bus=RM_82190.1.2 phases=1 conn=Delta kv=0.44 kw=-0.0645 pf=0.92 Daily=cc16_Util Model=2 status=variable vminpu=0.92 vmaxpu=1.1 
New Load.NTUC_82190_MOD3 bus=RM_82190.1.2 phases=1 conn=Delta kv=0.44 kw=-0.0645 pf=0.92 Daily=cc16_Util Model=3 status=variable vminpu=0.92 vmaxpu=1.1 

New Load.NTUC_35544_MOD2 bus=RM_35544.1.2 phases=1 conn=Delta kv=0.44 kw=-0.9555 pf=0.92 Daily=cc31_Util Model=2 status=variable vminpu=0.92 vmaxpu=1.1 
New Load.NTUC_35544_MOD3 bus=RM_35544.1.2 phases=1 conn=Delta kv=0.44 kw=-0.9555 pf=0.92 Daily=cc31_Util Model=3 status=variable vminpu=0.92 vmaxpu=1.1 

New Load.NTUC_73202_MOD2 bus=RM_73202.2 phases=1 conn=Wye kv=0.22 kw=-0.154 pf=0.92 Daily=cc29_Util Model=2 status=variable vminpu=0.92 vmaxpu=1.1 
New Load.NTUC_73202_MOD3 bus=RM_73202.2 phases=1 conn=Wye kv=0.22 kw=-0.154 pf=0.92 Daily=cc29_Util Model=3 status=variable vminpu=0.92 vmaxpu=1.1 

New Load.NTUC_78556_MOD2 bus=RM_78556.1 phases=1 conn=Wye kv=0.219 kw=-0.334 pf=0.92 Daily=cc18_Util Model=2 status=variable vminpu=0.92 vmaxpu=1.1 
New Load.NTUC_78556_MOD3 bus=RM_78556.1 phases=1 conn=Wye kv=0.219 kw=-0.334 pf=0.92 Daily=cc18_Util Model=3 status=variable vminpu=0.92 vmaxpu=1.1 

New Load.NTUC_82927_MOD2 bus=RM_82927.1.2.3 phases=3 conn=Delta kv=0.38 kw=-0.875 pf=0.92 Daily=cc30_Util Model=2 status=variable vminpu=0.92 vmaxpu=1.1 
New Load.NTUC_82927_MOD3 bus=RM_82927.1.2.3 phases=3 conn=Delta kv=0.38 kw=-0.875 pf=0.92 Daily=cc30_Util Model=3 status=variable vminpu=0.92 vmaxpu=1.1 

New Load.NTUC_17823_MOD2 bus=RM_17823.1.2 phases=1 conn=Delta kv=0.44 kw=-0.409 pf=0.92 Daily=cc30_Util Model=2 status=variable vminpu=0.92 vmaxpu=1.1 
New Load.NTUC_17823_MOD3 bus=RM_17823.1.2 phases=1 conn=Delta kv=0.44 kw=-0.409 pf=0.92 Daily=cc30_Util Model=3 status=variable vminpu=0.92 vmaxpu=1.1 

New Load.NTUC_48495_MOD2 bus=RM_48495.1.2.3 phases=3 conn=Delta kv=0.38 kw=-0.72 pf=0.92 Daily=cc30_Util Model=2 status=variable vminpu=0.92 vmaxpu=1.1 
New Load.NTUC_48495_MOD3 bus=RM_48495.1.2.3 phases=3 conn=Delta kv=0.38 kw=-0.72 pf=0.92 Daily=cc30_Util Model=3 status=variable vminpu=0.92 vmaxpu=1.1 

New Load.NTUC_6775_MOD2 bus=RM_6775.1.2.3 phases=3 conn=Delta kv=0.38 kw=-0.21 pf=0.92 Daily=cc29_Util Model=2 status=variable vminpu=0.92 vmaxpu=1.1 
New Load.NTUC_6775_MOD3 bus=RM_6775.1.2.3 phases=3 conn=Delta kv=0.38 kw=-0.21 pf=0.92 Daily=cc29_Util Model=3 status=variable vminpu=0.92 vmaxpu=1.1 

New Load.NTUC_55970_MOD2 bus=RM_55970.1.2.3 phases=3 conn=Delta kv=0.38 kw=-0.653 pf=0.92 Daily=cc30_Util Model=2 status=variable vminpu=0.92 vmaxpu=1.1 
New Load.NTUC_55970_MOD3 bus=RM_55970.1.2.3 phases=3 conn=Delta kv=0.38 kw=-0.653 pf=0.92 Daily=cc30_Util Model=3 status=variable vminpu=0.92 vmaxpu=1.1 

New Load.NTUC_53428_MOD2 bus=BT_141512_1.1.2.3 phases=3 conn=Delta kv=0 kw=-0.1075 pf=0.92 Daily=cc33_Util Model=2 status=variable vminpu=0.92 vmaxpu=1.1 
New Load.NTUC_53428_MOD3 bus=BT_141512_1.1.2.3 phases=3 conn=Delta kv=0 kw=-0.1075 pf=0.92 Daily=cc33_Util Model=3 status=variable vminpu=0.92 vmaxpu=1.1 

New Load.NTUC_18320_MOD2 bus=RM_18320.1.2 phases=1 conn=Delta kv=0.44 kw=-0.3035 pf=0.92 Daily=cc29_Util Model=2 status=variable vminpu=0.92 vmaxpu=1.1 
New Load.NTUC_18320_MOD3 bus=RM_18320.1.2 phases=1 conn=Delta kv=0.44 kw=-0.3035 pf=0.92 Daily=cc29_Util Model=3 status=variable vminpu=0.92 vmaxpu=1.1 

New Load.NTUC_18340_MOD2 bus=RM_18340.1.2 phases=1 conn=Delta kv=0.44 kw=-0.469 pf=0.92 Daily=cc30_Util Model=2 status=variable vminpu=0.92 vmaxpu=1.1 
New Load.NTUC_18340_MOD3 bus=RM_18340.1.2 phases=1 conn=Delta kv=0.44 kw=-0.469 pf=0.92 Daily=cc30_Util Model=3 status=variable vminpu=0.92 vmaxpu=1.1 

New Load.NTUC_19827_MOD2 bus=RM_19827.1.2.3 phases=3 conn=Delta kv=0.38 kw=-0.154 pf=0.92 Daily=cc31_Util Model=2 status=variable vminpu=0.92 vmaxpu=1.1 
New Load.NTUC_19827_MOD3 bus=RM_19827.1.2.3 phases=3 conn=Delta kv=0.38 kw=-0.154 pf=0.92 Daily=cc31_Util Model=3 status=variable vminpu=0.92 vmaxpu=1.1 

New Load.NTUC_18094_MOD2 bus=RM_18094.1 phases=1 conn=Wye kv=0.22 kw=-0.293 pf=0.92 Daily=cc29_Util Model=2 status=variable vminpu=0.92 vmaxpu=1.1 
New Load.NTUC_18094_MOD3 bus=RM_18094.1 phases=1 conn=Wye kv=0.22 kw=-0.293 pf=0.92 Daily=cc29_Util Model=3 status=variable vminpu=0.92 vmaxpu=1.1 

New Load.NTUC_20533_MOD2 bus=RM_20533.1 phases=1 conn=Wye kv=0.22 kw=-0.237 pf=0.92 Daily=cc29_Util Model=2 status=variable vminpu=0.92 vmaxpu=1.1 
New Load.NTUC_20533_MOD3 bus=RM_20533.1 phases=1 conn=Wye kv=0.22 kw=-0.237 pf=0.92 Daily=cc29_Util Model=3 status=variable vminpu=0.92 vmaxpu=1.1 

New Load.NTUC_8603_MOD2 bus=RM_8603.1.2.3 phases=3 conn=Delta kv=0.38 kw=-5.2105 pf=0.92 Daily=cc32_Util Model=2 status=variable vminpu=0.92 vmaxpu=1.1 
New Load.NTUC_8603_MOD3 bus=RM_8603.1.2.3 phases=3 conn=Delta kv=0.38 kw=-5.2105 pf=0.92 Daily=cc32_Util Model=3 status=variable vminpu=0.92 vmaxpu=1.1 

New Load.NTUC_55163_MOD2 bus=RM_55163.1.2 phases=1 conn=Delta kv=0.44 kw=-0.4005 pf=0.92 Daily=cc30_Util Model=2 status=variable vminpu=0.92 vmaxpu=1.1 
New Load.NTUC_55163_MOD3 bus=RM_55163.1.2 phases=1 conn=Delta kv=0.44 kw=-0.4005 pf=0.92 Daily=cc30_Util Model=3 status=variable vminpu=0.92 vmaxpu=1.1 

New Load.NTUC_84730_MOD2 bus=RM_84730.3 phases=1 conn=Wye kv=0.219 kw=-0.379 pf=0.92 Daily=cc30_Util Model=2 status=variable vminpu=0.92 vmaxpu=1.1 
New Load.NTUC_84730_MOD3 bus=RM_84730.3 phases=1 conn=Wye kv=0.219 kw=-0.379 pf=0.92 Daily=cc30_Util Model=3 status=variable vminpu=0.92 vmaxpu=1.1 

New Load.NTUC_45154_MOD2 bus=RM_45154.1 phases=1 conn=Wye kv=0.219 kw=-0.657 pf=0.92 Daily=cc30_Util Model=2 status=variable vminpu=0.92 vmaxpu=1.1 
New Load.NTUC_45154_MOD3 bus=RM_45154.1 phases=1 conn=Wye kv=0.219 kw=-0.657 pf=0.92 Daily=cc30_Util Model=3 status=variable vminpu=0.92 vmaxpu=1.1 

New Load.NTUC_82949_MOD2 bus=RM_82949.1.2.3 phases=3 conn=Delta kv=0.38 kw=-9.864 pf=0.92 Daily=cc33_Util Model=2 status=variable vminpu=0.92 vmaxpu=1.1 
New Load.NTUC_82949_MOD3 bus=RM_82949.1.2.3 phases=3 conn=Delta kv=0.38 kw=-9.864 pf=0.92 Daily=cc33_Util Model=3 status=variable vminpu=0.92 vmaxpu=1.1 

New Load.NTUC_26663_MOD2 bus=RM_26663.1.2 phases=1 conn=Delta kv=0.44 kw=-0.469 pf=0.92 Daily=cc30_Util Model=2 status=variable vminpu=0.92 vmaxpu=1.1 
New Load.NTUC_26663_MOD3 bus=RM_26663.1.2 phases=1 conn=Delta kv=0.44 kw=-0.469 pf=0.92 Daily=cc30_Util Model=3 status=variable vminpu=0.92 vmaxpu=1.1 

New Load.NTUC_20557_MOD2 bus=RM_20557.1.2 phases=1 conn=Delta kv=0.44 kw=-0.579 pf=0.92 Daily=cc30_Util Model=2 status=variable vminpu=0.92 vmaxpu=1.1 
New Load.NTUC_20557_MOD3 bus=RM_20557.1.2 phases=1 conn=Delta kv=0.44 kw=-0.579 pf=0.92 Daily=cc30_Util Model=3 status=variable vminpu=0.92 vmaxpu=1.1 

New Load.NTUC_82192_MOD2 bus=RM_82192.2 phases=1 conn=Wye kv=0.22 kw=-0.002 pf=0.92 Daily=cc29_Util Model=2 status=variable vminpu=0.92 vmaxpu=1.1 
New Load.NTUC_82192_MOD3 bus=RM_82192.2 phases=1 conn=Wye kv=0.22 kw=-0.002 pf=0.92 Daily=cc29_Util Model=3 status=variable vminpu=0.92 vmaxpu=1.1 

New Load.NTUC_18454_MOD2 bus=RM_18454.1.2 phases=1 conn=Delta kv=0.44 kw=-0.578 pf=0.92 Daily=cc18_Util Model=2 status=variable vminpu=0.92 vmaxpu=1.1 
New Load.NTUC_18454_MOD3 bus=RM_18454.1.2 phases=1 conn=Delta kv=0.44 kw=-0.578 pf=0.92 Daily=cc18_Util Model=3 status=variable vminpu=0.92 vmaxpu=1.1 

New Load.NTUC_8562_MOD2 bus=RM_8562.1.2 phases=1 conn=Wye kv=0.22 kw=-0.5285 pf=0.92 Daily=cc30_Util Model=2 status=variable vminpu=0.92 vmaxpu=1.1 
New Load.NTUC_8562_MOD3 bus=RM_8562.1.2 phases=1 conn=Wye kv=0.22 kw=-0.5285 pf=0.92 Daily=cc30_Util Model=3 status=variable vminpu=0.92 vmaxpu=1.1 

New Load.NTUC_28219_MOD2 bus=RM_28219.1.2 phases=1 conn=Delta kv=0.44 kw=-0.864 pf=0.92 Daily=cc30_Util Model=2 status=variable vminpu=0.92 vmaxpu=1.1 
New Load.NTUC_28219_MOD3 bus=RM_28219.1.2 phases=1 conn=Delta kv=0.44 kw=-0.864 pf=0.92 Daily=cc30_Util Model=3 status=variable vminpu=0.92 vmaxpu=1.1 

New Load.NTUC_73210_MOD2 bus=RM_73210.1.2 phases=1 conn=Wye kv=0.254 kw=-0.3585 pf=0.92 Daily=cc18_Util Model=2 status=variable vminpu=0.92 vmaxpu=1.1 
New Load.NTUC_73210_MOD3 bus=RM_73210.1.2 phases=1 conn=Wye kv=0.254 kw=-0.3585 pf=0.92 Daily=cc18_Util Model=3 status=variable vminpu=0.92 vmaxpu=1.1 

New Load.NTUC_58323_MOD2 bus=RM_58323.1.2 phases=1 conn=Delta kv=0.38 kw=-0.219 pf=0.92 Daily=cc29_Util Model=2 status=variable vminpu=0.92 vmaxpu=1.1 
New Load.NTUC_58323_MOD3 bus=RM_58323.1.2 phases=1 conn=Delta kv=0.38 kw=-0.219 pf=0.92 Daily=cc29_Util Model=3 status=variable vminpu=0.92 vmaxpu=1.1 

New Load.NTUC_48507_MOD2 bus=RM_48507.1.2.3 phases=3 conn=Delta kv=0.38 kw=-5.7775 pf=0.92 Daily=cc32_Util Model=2 status=variable vminpu=0.92 vmaxpu=1.1 
New Load.NTUC_48507_MOD3 bus=RM_48507.1.2.3 phases=3 conn=Delta kv=0.38 kw=-5.7775 pf=0.92 Daily=cc32_Util Model=3 status=variable vminpu=0.92 vmaxpu=1.1 

New Load.NTUC_46115_MOD2 bus=RM_46115.1.2 phases=1 conn=Delta kv=0.44 kw=-0.6495 pf=0.92 Daily=cc30_Util Model=2 status=variable vminpu=0.92 vmaxpu=1.1 
New Load.NTUC_46115_MOD3 bus=RM_46115.1.2 phases=1 conn=Delta kv=0.44 kw=-0.6495 pf=0.92 Daily=cc30_Util Model=3 status=variable vminpu=0.92 vmaxpu=1.1 

New Load.NTUC_7778_MOD2 bus=RM_7778.1 phases=1 conn=Wye kv=0.22 kw=-0.5285 pf=0.92 Daily=cc30_Util Model=2 status=variable vminpu=0.92 vmaxpu=1.1 
New Load.NTUC_7778_MOD3 bus=RM_7778.1 phases=1 conn=Wye kv=0.22 kw=-0.5285 pf=0.92 Daily=cc30_Util Model=3 status=variable vminpu=0.92 vmaxpu=1.1 

New Load.NTUC_18683_MOD2 bus=RM_18683.1.2 phases=1 conn=Delta kv=0.44 kw=-0.4665 pf=0.92 Daily=cc18_Util Model=2 status=variable vminpu=0.92 vmaxpu=1.1 
New Load.NTUC_18683_MOD3 bus=RM_18683.1.2 phases=1 conn=Delta kv=0.44 kw=-0.4665 pf=0.92 Daily=cc18_Util Model=3 status=variable vminpu=0.92 vmaxpu=1.1 

New Load.NTUC_46189_MOD2 bus=RM_46189.1.2 phases=1 conn=Delta kv=0.44 kw=-0.27 pf=0.92 Daily=cc17_Util Model=2 status=variable vminpu=0.92 vmaxpu=1.1 
New Load.NTUC_46189_MOD3 bus=RM_46189.1.2 phases=1 conn=Delta kv=0.44 kw=-0.27 pf=0.92 Daily=cc17_Util Model=3 status=variable vminpu=0.92 vmaxpu=1.1 

New Load.NTUC_18684_MOD2 bus=RM_18684.1.2 phases=1 conn=Delta kv=0.44 kw=-2.0445 pf=0.92 Daily=cc32_Util Model=2 status=variable vminpu=0.92 vmaxpu=1.1 
New Load.NTUC_18684_MOD3 bus=RM_18684.1.2 phases=1 conn=Delta kv=0.44 kw=-2.0445 pf=0.92 Daily=cc32_Util Model=3 status=variable vminpu=0.92 vmaxpu=1.1 

New Load.NTUC_43532_MOD2 bus=RM_43532.1.2.3 phases=3 conn=Delta kv=0.38 kw=-0.6715 pf=0.92 Daily=cc32_Util Model=2 status=variable vminpu=0.92 vmaxpu=1.1 
New Load.NTUC_43532_MOD3 bus=RM_43532.1.2.3 phases=3 conn=Delta kv=0.38 kw=-0.6715 pf=0.92 Daily=cc32_Util Model=3 status=variable vminpu=0.92 vmaxpu=1.1 

New Load.NTUC_18686_MOD2 bus=RM_18686.1.2 phases=1 conn=Wye kv=0.219 kw=-0.507 pf=0.92 Daily=cc30_Util Model=2 status=variable vminpu=0.92 vmaxpu=1.1 
New Load.NTUC_18686_MOD3 bus=RM_18686.1.2 phases=1 conn=Wye kv=0.219 kw=-0.507 pf=0.92 Daily=cc30_Util Model=3 status=variable vminpu=0.92 vmaxpu=1.1 

New Load.NTUC_18688_MOD2 bus=RM_18688.1.2 phases=1 conn=Delta kv=0.38 kw=-1.3855 pf=0.92 Daily=cc31_Util Model=2 status=variable vminpu=0.92 vmaxpu=1.1 
New Load.NTUC_18688_MOD3 bus=RM_18688.1.2 phases=1 conn=Delta kv=0.38 kw=-1.3855 pf=0.92 Daily=cc31_Util Model=3 status=variable vminpu=0.92 vmaxpu=1.1 

New Load.NTUC_62825_MOD2 bus=RM_62825.1.2 phases=3 conn=Delta kv=0.38 kw=-1.486 pf=0.92 Daily=cc31_Util Model=2 status=variable vminpu=0.92 vmaxpu=1.1 
New Load.NTUC_62825_MOD3 bus=RM_62825.1.2 phases=3 conn=Delta kv=0.38 kw=-1.486 pf=0.92 Daily=cc31_Util Model=3 status=variable vminpu=0.92 vmaxpu=1.1 

New Load.NTUC_18687_MOD2 bus=RM_18687.1.2.3 phases=3 conn=Delta kv=0.38 kw=-1.2155 pf=0.92 Daily=cc31_Util Model=2 status=variable vminpu=0.92 vmaxpu=1.1 
New Load.NTUC_18687_MOD3 bus=RM_18687.1.2.3 phases=3 conn=Delta kv=0.38 kw=-1.2155 pf=0.92 Daily=cc31_Util Model=3 status=variable vminpu=0.92 vmaxpu=1.1 

New Load.NTUC_32051_MOD2 bus=RM_32051.1.2.3 phases=3 conn=Delta kv=0.38 kw=-2.6595 pf=0.92 Daily=cc32_Util Model=2 status=variable vminpu=0.92 vmaxpu=1.1 
New Load.NTUC_32051_MOD3 bus=RM_32051.1.2.3 phases=3 conn=Delta kv=0.38 kw=-2.6595 pf=0.92 Daily=cc32_Util Model=3 status=variable vminpu=0.92 vmaxpu=1.1 

New Load.NTUC_82968_MOD2 bus=RM_82968.1.2.3 phases=3 conn=Delta kv=0.38 kw=-0.212 pf=0.92 Daily=cc25_Util Model=2 status=variable vminpu=0.92 vmaxpu=1.1 
New Load.NTUC_82968_MOD3 bus=RM_82968.1.2.3 phases=3 conn=Delta kv=0.38 kw=-0.212 pf=0.92 Daily=cc25_Util Model=3 status=variable vminpu=0.92 vmaxpu=1.1 

New Load.NTUC_71828_MOD2 bus=RM_71828.2 phases=1 conn=Wye kv=0.219 kw=-0.761 pf=0.92 Daily=cc30_Util Model=2 status=variable vminpu=0.92 vmaxpu=1.1 
New Load.NTUC_71828_MOD3 bus=RM_71828.2 phases=1 conn=Wye kv=0.219 kw=-0.761 pf=0.92 Daily=cc30_Util Model=3 status=variable vminpu=0.92 vmaxpu=1.1 

New Load.NTUC_19241_MOD2 bus=RM_19241.1.2 phases=1 conn=Delta kv=0.44 kw=-0.631 pf=0.92 Daily=cc30_Util Model=2 status=variable vminpu=0.92 vmaxpu=1.1 
...